LAMMPS (15 Sep 2022)
#sample LAMMPS input script for thermal conductivity of real
units                       real
atom_style                  full
neighbor                    2.0 bin
neigh_modify delay 0 every 1 check yes
timestep                    0.001
#使用混合势力场
pair_style hybrid  tersoff lj/class2/coul/long 14.5 lj/cut 14.5
bond_style      class2
angle_style     class2
dihedral_style  class2
improper_style  class2

read_data  BNNS-OH-40.data
Reading data file ...
  orthogonal box = (0 0 0) to (66.2101 66.2101 66.2101)
  reading atoms ...
  16240 atoms
  scanning bonds ...
  scanning angles ...
  scanning dihedrals ...
  scanning impropers ...
  reading bonds ...
  17860 bonds
  reading angles ...
  32640 angles
  reading dihedrals ...
  53740 dihedrals
  reading impropers ...
  16760 impropers
Finding 1-2 1-3 1-4 neighbors ...
     4 = max # of 1-2 neighbors
     7 = max # of 1-3 neighbors
    18 = max # of 1-4 neighbors
    21 = max # of special neighbors

pair_coeff * * tersoff BN2.tersoff  B NULL NULL NULL NULL NULL N NULL NULL
Reading tersoff potential file BN2.tersoff with DATE: 2017-11-28
pair_coeff 2 2     lj/class2/coul/long	0.0540     4.0100  # c1   -> c
pair_coeff 3 3     lj/class2/coul/long	0.0540     4.0100  # c2   -> c
pair_coeff 4 4     lj/class2/coul/long	0.0540     4.0100  # coh  -> c
pair_coeff 5 5     lj/class2/coul/long	0.0200     2.9950  # hc   -> h
pair_coeff 6 6     lj/class2/coul/long	0.0130     1.0980  # ho   -> h*
pair_coeff 8 8   lj/class2/coul/long	0.2400     3.5350  # oc   -> o
pair_coeff 9 9   lj/class2/coul/long	0.2400     3.5350  # oh   -> o
pair_coeff 1 2 lj/cut 0.07000 4.01
pair_coeff 1 3 lj/cut 0.07000 4.01
pair_coeff 1 4 lj/cut 0.07000 4.01
pair_coeff 1 5 lj/cut 0.03000 3.47
pair_coeff 1 6 lj/cut 0.04000 2.1
pair_coeff 1 8 lj/cut 0.15000 3.77
pair_coeff 1 9 lj/cut 0.15000 3.77
pair_coeff 2 7 lj/cut 0.01033 3.85
pair_coeff 3 7 lj/cut 0.01033 3.85
pair_coeff 4 7 lj/cut 0.01033 3.85
pair_coeff 5 7 lj/cut 0.00600 3.33
pair_coeff 6 7 lj/cut 0.00249 2.01
pair_coeff 7 8 lj/cut 0.04591 3.61
pair_coeff 7 9 lj/cut 0.04591 3.61
kspace_style    pppm 1e-4
#热力学信息输出
thermo 10000
thermo_style custom step temp vol press
#能量最小化
thermo 1000
thermo_style custom step temp pe ke press
dump 1 all atom 1000 h-BN-cnf.lammpstrj
min_style cg
minimize 1.0e-15 1.0e-15 10000 10000
PPPM initialization ...
  G vector (1/distance) = 0.1580138
  grid = 16 16 16
  stencil order = 5
  estimated absolute RMS force accuracy = 0.031075835
  estimated relative force accuracy = 9.3583953e-05
  3d grid and FFT values/proc = 1521 256
Step          Temp          PotEng         KinEng         Press
0   0              4.9038879e+18  0              4.6339341e+18
Loop time of 244.8 on 16 procs for 555 steps with 16240 atoms

Minimization stats:
  Stopping criterion = linesearch alpha is zero
  Energy initial, next-to-last, final =
  Force two-norm initial, final = 9.3241804e+20 2858.2859
  Force max component initial, final = 6.035737e+20 1308.6243
  Final line search alpha, max atom move = 1.11188e-15 1.4550331e-12
  Iterations, force evaluations = 555 2384

undump 1
reset_timestep 0

#1st equilibration run
velocity      all create 300 87287 dist gaussian
fix                                1 all nvt temp 300 300 100
run                              200000
PPPM initialization ...
  G vector (1/distance) = 0.1580138
  grid = 16 16 16
  stencil order = 5
  estimated absolute RMS force accuracy = 0.031075835
  estimated relative force accuracy = 9.3583953e-05
  3d grid and FFT values/proc = 1521 256
Step          Temp          PotEng         KinEng         Press
0   300           -418040.88      14521.612      30754.979
Averages over the last 101 of 201 rows, steps 100000 to 200000:
Temp PotEng KinEng Press
621.641 -438486 30090.7 6370.33
Loop time of 6665.36 on 16 procs for 200000 steps with 16240 atoms

unfix                             1
reset_timestep 0

#2nd equilibration run
compute                    KE all ke/atom
variable   temp atom c_KE/1.5
fix                               1 all nve
compute        layers all chunk/atom bin/1d z lower 0.05 units reduced
fix              2 all ave/chunk 10 100 1000 layers v_temp file profile.mp
fix                                3 all thermal/conductivity 10 z 20
variable        tdiff equal f_2[11][3]-f_2[1][3]
thermo_style               custom step temp epair etotal f_3 v_tdiff
thermo                        1000
run                               100000
PPPM initialization ...
  G vector (1/distance) = 0.1580138
  grid = 16 16 16
  stencil order = 5
  estimated absolute RMS force accuracy = 0.031075835
  estimated relative force accuracy = 9.3583953e-05
  3d grid and FFT values/proc = 1521 256
Step          Temp          E_pair         TotEng          f_3          v_tdiff
0   624.51019     -466281.44     -412261.62      0              0
Averages over the last 51 of 101 rows, steps 50000 to 100000:
Temp E_pair TotEng f_3 v_tdiff
655.087 -467285 -412243 2749.05 2.08346
Loop time of 3044.19 on 16 procs for 100000 steps with 16240 atoms

dump 4 all custom 1000 post-second-equil.xyz id type x y z

#thermal conductivity  calculation
fix                                3 all thermal/conductivity 10 z 20
fix              ave all ave/time 1 1 1000 v_tdiff ave running
thermo_style               custom step temp epair etotal f_3 v_tdiff f_ave
run                               100000
PPPM initialization ...
  G vector (1/distance) = 0.1580138
  grid = 16 16 16
  stencil order = 5
  estimated absolute RMS force accuracy = 0.031075835
  estimated relative force accuracy = 9.3583953e-05
  3d grid and FFT values/proc = 1521 256
Step          Temp          E_pair         TotEng          f_3          v_tdiff         f_ave
100000   663.78923     -467749.31     -412229.64      0              2.207103       2.207103
Averages over the last 51 of 101 rows, steps 150000 to 200000:
Temp E_pair TotEng f_3 v_tdiff f_ave
684.408 -467943 -412044 1022.44 2.56487 2.4377
Loop time of 2954.66 on 16 procs for 100000 steps with 16240 atoms
