LAMMPS (15 Sep 2022)
#sample LAMMPS input script for thermal conductivity of real
units                       real
atom_style                  full
neighbor                    2.0 bin
neigh_modify delay 0 every 1 check yes
timestep                    0.001
#使用混合势力场
pair_style hybrid  tersoff lj/class2/coul/long 14.5 lj/cut 14.5
bond_style      class2
angle_style     class2
dihedral_style  class2
improper_style  class2

read_data  BNNS-OH-35.data
Reading data file ...
  orthogonal box = (0 0 0) to (65.3622 65.3622 65.3622)
  reading atoms ...
  15800 atoms
  scanning bonds ...
  scanning angles ...
  scanning dihedrals ...
  scanning impropers ...
  reading bonds ...
  17285 bonds
  reading angles ...
  31635 angles
  reading dihedrals ...
  51950 dihedrals
  reading impropers ...
  16465 impropers
Finding 1-2 1-3 1-4 neighbors ...
     4 = max # of 1-2 neighbors
     7 = max # of 1-3 neighbors
    18 = max # of 1-4 neighbors
    21 = max # of special neighbors

pair_coeff * * tersoff BN2.tersoff  B NULL NULL NULL NULL NULL N NULL NULL
Reading tersoff potential file BN2.tersoff with DATE: 2017-11-28
pair_coeff 2 2     lj/class2/coul/long	0.0540     4.0100  # c1   -> c
pair_coeff 3 3     lj/class2/coul/long	0.0540     4.0100  # c2   -> c
pair_coeff 4 4     lj/class2/coul/long	0.0540     4.0100  # coh  -> c
pair_coeff 5 5     lj/class2/coul/long	0.0200     2.9950  # hc   -> h
pair_coeff 6 6     lj/class2/coul/long	0.0130     1.0980  # ho   -> h*
pair_coeff 8 8   lj/class2/coul/long	0.2400     3.5350  # oc   -> o
pair_coeff 9 9   lj/class2/coul/long	0.2400     3.5350  # oh   -> o
pair_coeff 1 2 lj/cut 0.07000 4.01
pair_coeff 1 3 lj/cut 0.07000 4.01
pair_coeff 1 4 lj/cut 0.07000 4.01
pair_coeff 1 5 lj/cut 0.03000 3.47
pair_coeff 1 6 lj/cut 0.04000 2.1
pair_coeff 1 8 lj/cut 0.15000 3.77
pair_coeff 1 9 lj/cut 0.15000 3.77
pair_coeff 2 7 lj/cut 0.01033 3.85
pair_coeff 3 7 lj/cut 0.01033 3.85
pair_coeff 4 7 lj/cut 0.01033 3.85
pair_coeff 5 7 lj/cut 0.00600 3.33
pair_coeff 6 7 lj/cut 0.00249 2.01
pair_coeff 7 8 lj/cut 0.04591 3.61
pair_coeff 7 9 lj/cut 0.04591 3.61
kspace_style    pppm 1e-4
#热力学信息输出
thermo 10000
thermo_style custom step temp vol press
#能量最小化
thermo 1000
thermo_style custom step temp pe ke press
dump 1 all atom 1000 h-BN-cnf.lammpstrj
min_style cg
minimize 1.0e-15 1.0e-15 10000 10000
PPPM initialization ...
  G vector (1/distance) = 0.15883623
  grid = 16 16 16
  stencil order = 5
  estimated absolute RMS force accuracy = 0.02902061
  estimated relative force accuracy = 8.7394706e-05
  3d grid and FFT values/proc = 1521 256
Step          Temp          PotEng         KinEng         Press
0   0              1.7365263e+27  0              1.7056326e+27
Loop time of 94.9294 on 16 procs for 434 steps with 15800 atoms

Minimization stats:
  Stopping criterion = linesearch alpha is zero
  Energy initial, next-to-last, final =
  Force two-norm initial, final = 1.5187878e+30 2875.1631
  Force max component initial, final = 9.9362677e+29 1500.3938
  Final line search alpha, max atom move = 1.0884758e-15 1.6331423e-12
  Iterations, force evaluations = 434 1783

undump 1
reset_timestep 0

#1st equilibration run
velocity      all create 300 87287 dist gaussian
fix                                1 all nvt temp 300 300 100
run                              100000
PPPM initialization ...
  G vector (1/distance) = 0.15883623
  grid = 16 16 16
  stencil order = 5
  estimated absolute RMS force accuracy = 0.02902061
  estimated relative force accuracy = 8.7394706e-05
  3d grid and FFT values/proc = 1521 256
Step          Temp          PotEng         KinEng         Press
0   300           -357943.72      14128.145      31831.708
Averages over the last 51 of 101 rows, steps 50000 to 100000:
Temp PotEng KinEng Press
592.766 -371076 27915.6 15134.1
Loop time of 2273.07 on 16 procs for 100000 steps with 15800 atoms

unfix                             1
reset_timestep 0

#2nd equilibration run
compute                    KE all ke/atom
variable   temp atom c_KE/1.5
fix                               1 all nve
compute        layers all chunk/atom bin/1d z lower 0.05 units reduced
fix              2 all ave/chunk 10 100 1000 layers v_temp file profile.mp
fix                                3 all thermal/conductivity 10 z 20
variable        tdiff equal f_2[11][3]-f_2[1][3]
thermo_style               custom step temp epair etotal f_3 v_tdiff
thermo                        1000
run                               100000
PPPM initialization ...
  G vector (1/distance) = 0.15883623
  grid = 16 16 16
  stencil order = 5
  estimated absolute RMS force accuracy = 0.02902061
  estimated relative force accuracy = 8.7394706e-05
  3d grid and FFT values/proc = 1521 256
Step          Temp          E_pair         TotEng          f_3          v_tdiff
0   661.19727     -403575.2      -344557.83      0              0
Averages over the last 51 of 101 rows, steps 50000 to 100000:
Temp E_pair TotEng f_3 v_tdiff
775.642 -407163 -344556 2094.42 2.12721
Loop time of 2250.54 on 16 procs for 100000 steps with 15800 atoms

dump 4 all custom 1000 post-second-equil.xyz id type x y z

#thermal conductivity  calculation
fix                                3 all thermal/conductivity 10 z 20
fix              ave all ave/time 1 1 1000 v_tdiff ave running
thermo_style               custom step temp epair etotal f_3 v_tdiff f_ave
run                               50000
PPPM initialization ...
  G vector (1/distance) = 0.15883623
  grid = 16 16 16
  stencil order = 5
  estimated absolute RMS force accuracy = 0.02902061
  estimated relative force accuracy = 8.7394706e-05
  3d grid and FFT values/proc = 1521 256
Step          Temp          E_pair         TotEng          f_3          v_tdiff         f_ave
100000   782.38335     -407719.22     -344554.05      0              2.2404565      2.2404565
Averages over the last 26 of 51 rows, steps 125000 to 150000:
Temp E_pair TotEng f_3 v_tdiff f_ave
789.95 -407724 -344553 407.628 2.4166 2.31067
Loop time of 1100.29 on 16 procs for 50000 steps with 15800 atoms
