LAMMPS (15 Sep 2022)
#sample LAMMPS input script for thermal conductivity of real
units                       real
atom_style                  full
neighbor                    2.0 bin
neigh_modify delay 0 every 1 check yes
timestep                    0.001
#使用混合势力场
pair_style hybrid  tersoff lj/class2/coul/long 12.5 lj/cut 12.5
bond_style      class2
angle_style     class2
dihedral_style  class2
improper_style  class2

read_data  BNNS-OH-25.data
Reading data file ...
  orthogonal box = (0 0 0) to (63.5971 63.5971 63.5971)
  reading atoms ...
  14920 atoms
  scanning bonds ...
  scanning angles ...
  scanning dihedrals ...
  scanning impropers ...
  reading bonds ...
  16135 bonds
  reading angles ...
  29625 angles
  reading dihedrals ...
  48370 dihedrals
  reading impropers ...
  15875 impropers
Finding 1-2 1-3 1-4 neighbors ...
     4 = max # of 1-2 neighbors
     7 = max # of 1-3 neighbors
    18 = max # of 1-4 neighbors
    21 = max # of special neighbors

pair_coeff * * tersoff BN2.tersoff  B NULL NULL NULL NULL NULL N NULL NULL
Reading tersoff potential file BN2.tersoff with DATE: 2017-11-28
pair_coeff 2 2     lj/class2/coul/long	0.0540     4.0100  # c1   -> c
pair_coeff 3 3     lj/class2/coul/long	0.0540     4.0100  # c2   -> c
pair_coeff 4 4     lj/class2/coul/long	0.0540     4.0100  # coh  -> c
pair_coeff 5 5     lj/class2/coul/long	0.0200     2.9950  # hc   -> h
pair_coeff 6 6     lj/class2/coul/long	0.0130     1.0980  # ho   -> h*
pair_coeff 8 8   lj/class2/coul/long	0.2400     3.5350  # oc   -> o
pair_coeff 9 9   lj/class2/coul/long	0.2400     3.5350  # oh   -> o
pair_coeff 1 2 lj/cut 0.07000 4.01
pair_coeff 1 3 lj/cut 0.07000 4.01
pair_coeff 1 4 lj/cut 0.07000 4.01
pair_coeff 1 5 lj/cut 0.03000 3.47
pair_coeff 1 6 lj/cut 0.04000 2.1
pair_coeff 1 8 lj/cut 0.15000 3.77
pair_coeff 1 9 lj/cut 0.15000 3.77
pair_coeff 2 7 lj/cut 0.01033 3.85
pair_coeff 3 7 lj/cut 0.01033 3.85
pair_coeff 4 7 lj/cut 0.01033 3.85
pair_coeff 5 7 lj/cut 0.00600 3.33
pair_coeff 6 7 lj/cut 0.00249 2.01
pair_coeff 7 8 lj/cut 0.04591 3.61
pair_coeff 7 9 lj/cut 0.04591 3.61
kspace_style    pppm 1e-4
#热力学信息输出
thermo 10000
thermo_style custom step temp vol press
#能量最小化
thermo 1000
thermo_style custom step temp pe ke press
dump 1 all atom 1000 h-BN-cnf.lammpstrj
min_style cg
minimize 1.0e-15 1.0e-15 10000 10000
PPPM initialization ...
  G vector (1/distance) = 0.18401017
  grid = 18 18 18
  stencil order = 5
  estimated absolute RMS force accuracy = 0.030740395
  estimated relative force accuracy = 9.2573786e-05
  3d grid and FFT values/proc = 1960 648
Step          Temp          PotEng         KinEng         Press
0   0              7.1081026e+18  0              7.5792431e+18
Loop time of 366.182 on 16 procs for 793 steps with 14920 atoms

Minimization stats:
  Stopping criterion = max force evaluations
  Energy initial, next-to-last, final =
  Force two-norm initial, final = 1.2451718e+21 47983.784
  Force max component initial, final = 5.9329156e+20 26939.117
  Final line search alpha, max atom move = 8.0120121e-09 0.00021583653
  Iterations, force evaluations = 793 10001

undump 1
reset_timestep 0

#1st equilibration run
velocity      all create 300 87287 dist gaussian
fix                                1 all nvt temp 300 300 100
run                              100000
PPPM initialization ...
  G vector (1/distance) = 0.18401017
  grid = 18 18 18
  stencil order = 5
  estimated absolute RMS force accuracy = 0.030740395
  estimated relative force accuracy = 9.2573786e-05
  3d grid and FFT values/proc = 1960 648
Step          Temp          PotEng         KinEng         Press
0   300           -219237.8       13341.212      40631.037
Averages over the last 51 of 101 rows, steps 50000 to 100000:
Temp PotEng KinEng Press
768.154 -241976 34160.3 18215.3
Loop time of 2330.75 on 16 procs for 100000 steps with 14920 atoms

unfix                             1
reset_timestep 0

#2nd equilibration run
compute                    KE all ke/atom
variable   temp atom c_KE/1.5
fix                               1 all nve
compute        layers all chunk/atom bin/1d z lower 0.05 units reduced
fix              2 all ave/chunk 10 100 1000 layers v_temp file profile.mp
fix                                3 all thermal/conductivity 10 z 20
variable        tdiff equal f_2[11][3]-f_2[1][3]
thermo_style               custom step temp epair etotal f_3 v_tdiff
thermo                        1000
run                               100000
PPPM initialization ...
  G vector (1/distance) = 0.18401017
  grid = 18 18 18
  stencil order = 5
  estimated absolute RMS force accuracy = 0.030740395
  estimated relative force accuracy = 9.2573786e-05
  3d grid and FFT values/proc = 1960 648
Step          Temp          E_pair         TotEng          f_3          v_tdiff
0   841.76929     -284658.29     -210163.1       0              0
Averages over the last 51 of 101 rows, steps 50000 to 100000:
Temp E_pair TotEng f_3 v_tdiff
922.759 -286802 -210132 3517.64 2.91679
Loop time of 2280.79 on 16 procs for 100000 steps with 14920 atoms

dump 4 all custom 1000 post-second-equil.xyz id type x y z

#thermal conductivity  calculation
fix                                3 all thermal/conductivity 10 z 20
fix              ave all ave/time 1 1 1000 v_tdiff ave running
thermo_style               custom step temp epair etotal f_3 v_tdiff f_ave
run                               50000
PPPM initialization ...
  G vector (1/distance) = 0.18401017
  grid = 18 18 18
  stencil order = 5
  estimated absolute RMS force accuracy = 0.030740395
  estimated relative force accuracy = 9.2573786e-05
  3d grid and FFT values/proc = 1960 648
Step          Temp          E_pair         TotEng          f_3          v_tdiff         f_ave
100000   935.48941     -286932.26     -210111.25      0              2.9829595      2.9829595
Averages over the last 26 of 51 rows, steps 125000 to 150000:
Temp E_pair TotEng f_3 v_tdiff f_ave
1002.5 -289049 -209978 793.454 3.36553 3.23936
Loop time of 1107.98 on 16 procs for 50000 steps with 14920 atoms
